<routes>
<route id = "Route1" edges = "edge1 edge2" />
<vType id="type1" carFollowModel="IDM"/>
<vehicle id="V0" type= "type1" route="Route1" depart="0.252660" 					departSpeed="10" departPos="base" color="1,0,0" departLane="2" />
<vehicle id="V1" type= "type1" route="Route1" depart="0.867245" 					departSpeed="10" departPos="base" color="1,0,0" departLane="1" />
<vehicle id="V2" type= "type1" route="Route1" depart="1.010610" 					departSpeed="10" departPos="base" color="1,0,0" departLane="2" />
<vehicle id="V3" type= "type1" route="Route1" depart="1.257224" 					departSpeed="10" departPos="base" color="1,0,0" departLane="1" />
<vehicle id="V4" type= "type1" route="Route1" depart="1.449829" 					departSpeed="10" departPos="base" color="1,0,0" departLane="1" />
<vehicle id="V5" type= "type1" route="Route1" depart="1.600736" 					departSpeed="10" departPos="base" color="1,0,0" departLane="0" />
<vehicle id="V6" type= "type1" route="Route1" depart="1.973793" 					departSpeed="10" departPos="base" color="1,0,0" departLane="1" />
<vehicle id="V7" type= "type1" route="Route1" depart="2.184279" 					departSpeed="10" departPos="base" color="1,0,0" departLane="0" />
<vehicle id="V8" type= "type1" route="Route1" depart="2.667473" 					departSpeed="10" departPos="base" color="1,0,0" departLane="1" />
<vehicle id="V9" type= "type1" route="Route1" depart="3.163874" 					departSpeed="10" departPos="base" color="1,0,0" departLane="1" />
<vehicle id="V10" type= "type1" route="Route1" depart="4.589861" 					departSpeed="10" departPos="base" color="1,0,0" departLane="2" />
<vehicle id="V11" type= "type1" route="Route1" depart="5.120212" 					departSpeed="10" departPos="base" color="1,0,0" departLane="2" />
<vehicle id="V12" type= "type1" route="Route1" depart="5.684199" 					departSpeed="10" departPos="base" color="1,0,0" departLane="2" />
<vehicle id="V13" type= "type1" route="Route1" depart="5.885640" 					departSpeed="10" departPos="base" color="1,0,0" departLane="0" />
<vehicle id="V14" type= "type1" route="Route1" depart="5.959454" 					departSpeed="10" departPos="base" color="1,0,0" departLane="2" />
<vehicle id="V15" type= "type1" route="Route1" depart="6.204244" 					departSpeed="10" departPos="base" color="1,0,0" departLane="2" />
<vehicle id="V16" type= "type1" route="Route1" depart="6.237449" 					departSpeed="10" departPos="base" color="1,0,0" departLane="1" />
<vehicle id="V17" type= "type1" route="Route1" depart="6.441077" 					departSpeed="10" departPos="base" color="1,0,0" departLane="0" />
<vehicle id="V18" type= "type1" route="Route1" depart="6.598448" 					departSpeed="10" departPos="base" color="1,0,0" departLane="0" />
<vehicle id="V19" type= "type1" route="Route1" depart="6.689281" 					departSpeed="10" departPos="base" color="1,0,0" departLane="2" />
<vehicle id="V20" type= "type1" route="Route1" depart="7.044577" 					departSpeed="10" departPos="base" color="1,0,0" departLane="0" />
<vehicle id="V21" type= "type1" route="Route1" depart="7.160124" 					departSpeed="10" departPos="base" color="1,0,0" departLane="1" />
<vehicle id="V22" type= "type1" route="Route1" depart="7.213832" 					departSpeed="10" departPos="base" color="1,0,0" departLane="1" />
<vehicle id="V23" type= "type1" route="Route1" depart="7.253786" 					departSpeed="10" departPos="base" color="1,0,0" departLane="2" />
<vehicle id="V24" type= "type1" route="Route1" depart="7.642018" 					departSpeed="10" departPos="base" color="1,0,0" departLane="2" />
<vehicle id="V25" type= "type1" route="Route1" depart="7.653178" 					departSpeed="10" departPos="base" color="1,0,0" departLane="1" />
<vehicle id="V26" type= "type1" route="Route1" depart="8.126863" 					departSpeed="10" departPos="base" color="1,0,0" departLane="0" />
<vehicle id="V27" type= "type1" route="Route1" depart="9.197043" 					departSpeed="10" departPos="base" color="1,0,0" departLane="0" />
<vehicle id="V28" type= "type1" route="Route1" depart="9.655911" 					departSpeed="10" departPos="base" color="1,0,0" departLane="0" />
<vehicle id="V29" type= "type1" route="Route1" depart="10.002957" 					departSpeed="10" departPos="base" color="1,0,0" departLane="2" />
<vehicle id="V30" type= "type1" route="Route1" depart="10.103742" 					departSpeed="10" departPos="base" color="1,0,0" departLane="0" />
<vehicle id="V31" type= "type1" route="Route1" depart="10.785282" 					departSpeed="10" departPos="base" color="1,0,0" departLane="2" />
<vehicle id="V32" type= "type1" route="Route1" depart="10.980581" 					departSpeed="10" departPos="base" color="1,0,0" departLane="1" />
<vehicle id="V33" type= "type1" route="Route1" depart="11.090738" 					departSpeed="10" departPos="base" color="1,0,0" departLane="0" />
<vehicle id="V34" type= "type1" route="Route1" depart="11.132457" 					departSpeed="10" departPos="base" color="1,0,0" departLane="1" />
<vehicle id="V35" type= "type1" route="Route1" depart="11.191220" 					departSpeed="10" departPos="base" color="1,0,0" departLane="0" />
<vehicle id="V36" type= "type1" route="Route1" depart="11.226263" 					departSpeed="10" departPos="base" color="1,0,0" departLane="2" />
<vehicle id="V37" type= "type1" route="Route1" depart="11.282921" 					departSpeed="10" departPos="base" color="1,0,0" departLane="0" />
<vehicle id="V38" type= "type1" route="Route1" depart="11.351767" 					departSpeed="10" departPos="base" color="1,0,0" departLane="0" />
<vehicle id="V39" type= "type1" route="Route1" depart="11.473320" 					departSpeed="10" departPos="base" color="1,0,0" departLane="0" />
</routes>
