<routes>
<route id = "Route1" edges = "edge1 edge2" />
<vType id="type1" carFollowModel="IDM"/>
<vehicle id="V0" type= "type1" route="Route1" depart="0.172493" 					departSpeed="10" departPos="base" color="1,0,0" />
<vehicle id="V1" type= "type1" route="Route1" depart="0.259728" 					departSpeed="10" departPos="base" color="1,0,0" />
<vehicle id="V2" type= "type1" route="Route1" depart="0.356134" 					departSpeed="10" departPos="base" color="1,0,0" />
<vehicle id="V3" type= "type1" route="Route1" depart="1.285040" 					departSpeed="10" departPos="base" color="1,0,0" />
<vehicle id="V4" type= "type1" route="Route1" depart="1.467559" 					departSpeed="10" departPos="base" color="1,0,0" />
<vehicle id="V5" type= "type1" route="Route1" depart="1.991950" 					departSpeed="10" departPos="base" color="1,0,0" />
<vehicle id="V6" type= "type1" route="Route1" depart="2.650893" 					departSpeed="10" departPos="base" color="1,0,0" />
<vehicle id="V7" type= "type1" route="Route1" depart="2.857205" 					departSpeed="10" departPos="base" color="1,0,0" />
<vehicle id="V8" type= "type1" route="Route1" depart="2.886075" 					departSpeed="10" departPos="base" color="1,0,0" />
<vehicle id="V9" type= "type1" route="Route1" depart="3.097098" 					departSpeed="10" departPos="base" color="1,0,0" />
<vehicle id="V10" type= "type1" route="Route1" depart="3.201727" 					departSpeed="10" departPos="base" color="1,0,0" />
<vehicle id="V11" type= "type1" route="Route1" depart="3.277680" 					departSpeed="10" departPos="base" color="1,0,0" />
<vehicle id="V12" type= "type1" route="Route1" depart="3.484366" 					departSpeed="10" departPos="base" color="1,0,0" />
<vehicle id="V13" type= "type1" route="Route1" depart="4.737637" 					departSpeed="10" departPos="base" color="1,0,0" />
<vehicle id="V14" type= "type1" route="Route1" depart="4.818677" 					departSpeed="10" departPos="base" color="1,0,0" />
<vehicle id="V15" type= "type1" route="Route1" depart="5.277470" 					departSpeed="10" departPos="base" color="1,0,0" />
<vehicle id="V16" type= "type1" route="Route1" depart="6.237739" 					departSpeed="10" departPos="base" color="1,0,0" />
<vehicle id="V17" type= "type1" route="Route1" depart="6.250328" 					departSpeed="10" departPos="base" color="1,0,0" />
<vehicle id="V18" type= "type1" route="Route1" depart="6.464306" 					departSpeed="10" departPos="base" color="1,0,0" />
<vehicle id="V19" type= "type1" route="Route1" depart="7.384171" 					departSpeed="10" departPos="base" color="1,0,0" />
<vehicle id="V20" type= "type1" route="Route1" depart="7.435575" 					departSpeed="10" departPos="base" color="1,0,0" />
<vehicle id="V21" type= "type1" route="Route1" depart="7.595492" 					departSpeed="10" departPos="base" color="1,0,0" />
<vehicle id="V22" type= "type1" route="Route1" depart="7.670204" 					departSpeed="10" departPos="base" color="1,0,0" />
<vehicle id="V23" type= "type1" route="Route1" depart="7.865251" 					departSpeed="10" departPos="base" color="1,0,0" />
<vehicle id="V24" type= "type1" route="Route1" depart="8.446496" 					departSpeed="10" departPos="base" color="1,0,0" />
<vehicle id="V25" type= "type1" route="Route1" depart="9.391899" 					departSpeed="10" departPos="base" color="1,0,0" />
<vehicle id="V26" type= "type1" route="Route1" depart="9.438675" 					departSpeed="10" departPos="base" color="1,0,0" />
<vehicle id="V27" type= "type1" route="Route1" depart="9.750869" 					departSpeed="10" departPos="base" color="1,0,0" />
<vehicle id="V28" type= "type1" route="Route1" depart="9.784689" 					departSpeed="10" departPos="base" color="1,0,0" />
<vehicle id="V29" type= "type1" route="Route1" depart="9.848464" 					departSpeed="10" departPos="base" color="1,0,0" />
<vehicle id="V30" type= "type1" route="Route1" depart="9.900881" 					departSpeed="10" departPos="base" color="1,0,0" />
<vehicle id="V31" type= "type1" route="Route1" depart="10.391596" 					departSpeed="10" departPos="base" color="1,0,0" />
<vehicle id="V32" type= "type1" route="Route1" depart="10.433153" 					departSpeed="10" departPos="base" color="1,0,0" />
<vehicle id="V33" type= "type1" route="Route1" depart="10.811224" 					departSpeed="10" departPos="base" color="1,0,0" />
<vehicle id="V34" type= "type1" route="Route1" depart="10.814961" 					departSpeed="10" departPos="base" color="1,0,0" />
<vehicle id="V35" type= "type1" route="Route1" depart="10.896214" 					departSpeed="10" departPos="base" color="1,0,0" />
<vehicle id="V36" type= "type1" route="Route1" depart="11.472226" 					departSpeed="10" departPos="base" color="1,0,0" />
<vehicle id="V37" type= "type1" route="Route1" depart="11.650408" 					departSpeed="10" departPos="base" color="1,0,0" />
<vehicle id="V38" type= "type1" route="Route1" depart="11.717057" 					departSpeed="10" departPos="base" color="1,0,0" />
<vehicle id="V39" type= "type1" route="Route1" depart="12.143361" 					departSpeed="10" departPos="base" color="1,0,0" />
</routes>
