<routes>
<route id = "Route1" edges = "edge1 edge2" />
<vType id="type1" carFollowModel="IDM"/>
<vehicle id="V0" type= "type1" route="Route1" depart="0.087465" 					departSpeed="10" departPos="base" color="1,0,0" departLane="1" 					arrivalLane="0"/>
<vehicle id="V1" type= "type1" route="Route1" depart="0.766643" 					departSpeed="10" departPos="base" color="1,0,0" departLane="2" 					arrivalLane="1"/>
<vehicle id="V2" type= "type1" route="Route1" depart="1.082368" 					departSpeed="10" departPos="base" color="1,0,0" departLane="0" 					arrivalLane="1"/>
<vehicle id="V3" type= "type1" route="Route1" depart="1.128784" 					departSpeed="10" departPos="base" color="1,0,0" departLane="1" 					arrivalLane="2"/>
<vehicle id="V4" type= "type1" route="Route1" depart="1.156046" 					departSpeed="10" departPos="base" color="1,0,0" departLane="2" 					arrivalLane="0"/>
<vehicle id="V5" type= "type1" route="Route1" depart="1.382988" 					departSpeed="10" departPos="base" color="1,0,0" departLane="1" 					arrivalLane="0"/>
<vehicle id="V6" type= "type1" route="Route1" depart="3.183332" 					departSpeed="10" departPos="base" color="1,0,0" departLane="0" 					arrivalLane="1"/>
<vehicle id="V7" type= "type1" route="Route1" depart="4.424203" 					departSpeed="10" departPos="base" color="1,0,0" departLane="1" 					arrivalLane="2"/>
<vehicle id="V8" type= "type1" route="Route1" depart="6.260541" 					departSpeed="10" departPos="base" color="1,0,0" departLane="0" 					arrivalLane="2"/>
<vehicle id="V9" type= "type1" route="Route1" depart="7.997128" 					departSpeed="10" departPos="base" color="1,0,0" departLane="2" 					arrivalLane="1"/>
<vehicle id="V10" type= "type1" route="Route1" depart="9.282779" 					departSpeed="10" departPos="base" color="1,0,0" departLane="1" 					arrivalLane="0"/>
<vehicle id="V11" type= "type1" route="Route1" depart="10.361281" 					departSpeed="10" departPos="base" color="1,0,0" departLane="2" 					arrivalLane="0"/>
<vehicle id="V12" type= "type1" route="Route1" depart="10.471971" 					departSpeed="10" departPos="base" color="1,0,0" departLane="2" 					arrivalLane="1"/>
<vehicle id="V13" type= "type1" route="Route1" depart="10.560695" 					departSpeed="10" departPos="base" color="1,0,0" departLane="2" 					arrivalLane="0"/>
<vehicle id="V14" type= "type1" route="Route1" depart="10.679577" 					departSpeed="10" departPos="base" color="1,0,0" departLane="0" 					arrivalLane="1"/>
<vehicle id="V15" type= "type1" route="Route1" depart="12.630308" 					departSpeed="10" departPos="base" color="1,0,0" departLane="2" 					arrivalLane="1"/>
<vehicle id="V16" type= "type1" route="Route1" depart="12.705518" 					departSpeed="10" departPos="base" color="1,0,0" departLane="2" 					arrivalLane="0"/>
<vehicle id="V17" type= "type1" route="Route1" depart="13.227354" 					departSpeed="10" departPos="base" color="1,0,0" departLane="2" 					arrivalLane="1"/>
<vehicle id="V18" type= "type1" route="Route1" depart="13.877583" 					departSpeed="10" departPos="base" color="1,0,0" departLane="1" 					arrivalLane="2"/>
<vehicle id="V19" type= "type1" route="Route1" depart="14.311991" 					departSpeed="10" departPos="base" color="1,0,0" departLane="1" 					arrivalLane="2"/>
<vehicle id="V20" type= "type1" route="Route1" depart="14.597393" 					departSpeed="10" departPos="base" color="1,0,0" departLane="0" 					arrivalLane="1"/>
<vehicle id="V21" type= "type1" route="Route1" depart="15.825970" 					departSpeed="10" departPos="base" color="1,0,0" departLane="2" 					arrivalLane="1"/>
<vehicle id="V22" type= "type1" route="Route1" depart="15.987672" 					departSpeed="10" departPos="base" color="1,0,0" departLane="2" 					arrivalLane="1"/>
<vehicle id="V23" type= "type1" route="Route1" depart="16.796859" 					departSpeed="10" departPos="base" color="1,0,0" departLane="2" 					arrivalLane="1"/>
<vehicle id="V24" type= "type1" route="Route1" depart="18.085485" 					departSpeed="10" departPos="base" color="1,0,0" departLane="1" 					arrivalLane="0"/>
<vehicle id="V25" type= "type1" route="Route1" depart="18.118809" 					departSpeed="10" departPos="base" color="1,0,0" departLane="2" 					arrivalLane="1"/>
<vehicle id="V26" type= "type1" route="Route1" depart="18.218792" 					departSpeed="10" departPos="base" color="1,0,0" departLane="1" 					arrivalLane="0"/>
<vehicle id="V27" type= "type1" route="Route1" depart="18.921654" 					departSpeed="10" departPos="base" color="1,0,0" departLane="2" 					arrivalLane="0"/>
<vehicle id="V28" type= "type1" route="Route1" depart="20.127690" 					departSpeed="10" departPos="base" color="1,0,0" departLane="2" 					arrivalLane="0"/>
<vehicle id="V29" type= "type1" route="Route1" depart="20.712245" 					departSpeed="10" departPos="base" color="1,0,0" departLane="2" 					arrivalLane="1"/>
<vehicle id="V30" type= "type1" route="Route1" depart="20.937843" 					departSpeed="10" departPos="base" color="1,0,0" departLane="0" 					arrivalLane="1"/>
<vehicle id="V31" type= "type1" route="Route1" depart="21.296366" 					departSpeed="10" departPos="base" color="1,0,0" departLane="2" 					arrivalLane="0"/>
<vehicle id="V32" type= "type1" route="Route1" depart="22.003780" 					departSpeed="10" departPos="base" color="1,0,0" departLane="0" 					arrivalLane="1"/>
<vehicle id="V33" type= "type1" route="Route1" depart="22.278248" 					departSpeed="10" departPos="base" color="1,0,0" departLane="0" 					arrivalLane="2"/>
<vehicle id="V34" type= "type1" route="Route1" depart="22.908146" 					departSpeed="10" departPos="base" color="1,0,0" departLane="0" 					arrivalLane="2"/>
<vehicle id="V35" type= "type1" route="Route1" depart="24.424530" 					departSpeed="10" departPos="base" color="1,0,0" departLane="0" 					arrivalLane="2"/>
<vehicle id="V36" type= "type1" route="Route1" depart="24.522139" 					departSpeed="10" departPos="base" color="1,0,0" departLane="1" 					arrivalLane="0"/>
<vehicle id="V37" type= "type1" route="Route1" depart="27.530808" 					departSpeed="10" departPos="base" color="1,0,0" departLane="0" 					arrivalLane="1"/>
<vehicle id="V38" type= "type1" route="Route1" depart="27.585859" 					departSpeed="10" departPos="base" color="1,0,0" departLane="0" 					arrivalLane="1"/>
<vehicle id="V39" type= "type1" route="Route1" depart="28.155661" 					departSpeed="10" departPos="base" color="1,0,0" departLane="0" 					arrivalLane="2"/>
</routes>
