<routes>
<route id = "Route1" edges = "edge1 edge2" />
<vType id="type1" carFollowModel="IDM"/>
<vehicle id="V0" type= "type1" route="Route1" depart="1.550506" 					departSpeed="10" departPos="base" color="1,0,0" />
<vehicle id="V1" type= "type1" route="Route1" depart="1.800208" 					departSpeed="10" departPos="base" color="1,0,0" />
<vehicle id="V2" type= "type1" route="Route1" depart="2.232777" 					departSpeed="10" departPos="base" color="1,0,0" />
<vehicle id="V3" type= "type1" route="Route1" depart="2.602147" 					departSpeed="10" departPos="base" color="1,0,0" />
<vehicle id="V4" type= "type1" route="Route1" depart="2.878030" 					departSpeed="10" departPos="base" color="1,0,0" />
<vehicle id="V5" type= "type1" route="Route1" depart="6.513819" 					departSpeed="10" departPos="base" color="1,0,0" />
<vehicle id="V6" type= "type1" route="Route1" depart="6.823217" 					departSpeed="10" departPos="base" color="1,0,0" />
<vehicle id="V7" type= "type1" route="Route1" depart="8.732412" 					departSpeed="10" departPos="base" color="1,0,0" />
<vehicle id="V8" type= "type1" route="Route1" depart="9.264853" 					departSpeed="10" departPos="base" color="1,0,0" />
<vehicle id="V9" type= "type1" route="Route1" depart="9.739407" 					departSpeed="10" departPos="base" color="1,0,0" />
<vehicle id="V10" type= "type1" route="Route1" depart="12.572233" 					departSpeed="10" departPos="base" color="1,0,0" />
<vehicle id="V11" type= "type1" route="Route1" depart="14.242882" 					departSpeed="10" departPos="base" color="1,0,0" />
<vehicle id="V12" type= "type1" route="Route1" depart="15.605297" 					departSpeed="10" departPos="base" color="1,0,0" />
<vehicle id="V13" type= "type1" route="Route1" depart="15.686891" 					departSpeed="10" departPos="base" color="1,0,0" />
<vehicle id="V14" type= "type1" route="Route1" depart="16.475628" 					departSpeed="10" departPos="base" color="1,0,0" />
<vehicle id="V15" type= "type1" route="Route1" depart="17.567599" 					departSpeed="10" departPos="base" color="1,0,0" />
<vehicle id="V16" type= "type1" route="Route1" depart="17.744299" 					departSpeed="10" departPos="base" color="1,0,0" />
<vehicle id="V17" type= "type1" route="Route1" depart="17.971480" 					departSpeed="10" departPos="base" color="1,0,0" />
<vehicle id="V18" type= "type1" route="Route1" depart="18.051186" 					departSpeed="10" departPos="base" color="1,0,0" />
<vehicle id="V19" type= "type1" route="Route1" depart="18.147416" 					departSpeed="10" departPos="base" color="1,0,0" />
<vehicle id="V20" type= "type1" route="Route1" depart="19.169155" 					departSpeed="10" departPos="base" color="1,0,0" />
<vehicle id="V21" type= "type1" route="Route1" depart="20.572924" 					departSpeed="10" departPos="base" color="1,0,0" />
<vehicle id="V22" type= "type1" route="Route1" depart="23.339391" 					departSpeed="10" departPos="base" color="1,0,0" />
<vehicle id="V23" type= "type1" route="Route1" depart="23.830031" 					departSpeed="10" departPos="base" color="1,0,0" />
<vehicle id="V24" type= "type1" route="Route1" depart="24.147805" 					departSpeed="10" departPos="base" color="1,0,0" />
<vehicle id="V25" type= "type1" route="Route1" depart="24.317122" 					departSpeed="10" departPos="base" color="1,0,0" />
<vehicle id="V26" type= "type1" route="Route1" depart="25.107742" 					departSpeed="10" departPos="base" color="1,0,0" />
<vehicle id="V27" type= "type1" route="Route1" depart="25.647140" 					departSpeed="10" departPos="base" color="1,0,0" />
<vehicle id="V28" type= "type1" route="Route1" depart="27.391895" 					departSpeed="10" departPos="base" color="1,0,0" />
<vehicle id="V29" type= "type1" route="Route1" depart="29.295629" 					departSpeed="10" departPos="base" color="1,0,0" />
<vehicle id="V30" type= "type1" route="Route1" depart="30.811736" 					departSpeed="10" departPos="base" color="1,0,0" />
<vehicle id="V31" type= "type1" route="Route1" depart="31.426490" 					departSpeed="10" departPos="base" color="1,0,0" />
<vehicle id="V32" type= "type1" route="Route1" depart="33.304962" 					departSpeed="10" departPos="base" color="1,0,0" />
<vehicle id="V33" type= "type1" route="Route1" depart="34.027274" 					departSpeed="10" departPos="base" color="1,0,0" />
<vehicle id="V34" type= "type1" route="Route1" depart="34.926884" 					departSpeed="10" departPos="base" color="1,0,0" />
<vehicle id="V35" type= "type1" route="Route1" depart="34.998521" 					departSpeed="10" departPos="base" color="1,0,0" />
<vehicle id="V36" type= "type1" route="Route1" depart="35.553851" 					departSpeed="10" departPos="base" color="1,0,0" />
<vehicle id="V37" type= "type1" route="Route1" depart="37.107877" 					departSpeed="10" departPos="base" color="1,0,0" />
<vehicle id="V38" type= "type1" route="Route1" depart="38.203597" 					departSpeed="10" departPos="base" color="1,0,0" />
<vehicle id="V39" type= "type1" route="Route1" depart="38.591356" 					departSpeed="10" departPos="base" color="1,0,0" />
</routes>
