<edges>

   <edge id="edge1" from="0" to="1" priority="2" numLanes="3" speed="30"/>
   <edge id="edge2" from="1" to="2" priority="2" numLanes="3" speed="30"/>

</edges>