<routes>
<route id = "Route1" edges = "edge1 edge2" />
<vType id="type1" carFollowModel="IDM"/>
<vehicle id="V0" type= "type1" route="Route1" depart="0.483471" 					departSpeed="10" departPos="base" color="1,0,0" />
<vehicle id="V1" type= "type1" route="Route1" depart="0.833190" 					departSpeed="10" departPos="base" color="1,0,0" />
<vehicle id="V2" type= "type1" route="Route1" depart="1.345085" 					departSpeed="10" departPos="base" color="1,0,0" />
<vehicle id="V3" type= "type1" route="Route1" depart="2.000101" 					departSpeed="10" departPos="base" color="1,0,0" />
<vehicle id="V4" type= "type1" route="Route1" depart="3.969056" 					departSpeed="10" departPos="base" color="1,0,0" />
<vehicle id="V5" type= "type1" route="Route1" depart="4.088382" 					departSpeed="10" departPos="base" color="1,0,0" />
<vehicle id="V6" type= "type1" route="Route1" depart="4.904608" 					departSpeed="10" departPos="base" color="1,0,0" />
<vehicle id="V7" type= "type1" route="Route1" depart="5.259084" 					departSpeed="10" departPos="base" color="1,0,0" />
<vehicle id="V8" type= "type1" route="Route1" depart="5.822712" 					departSpeed="10" departPos="base" color="1,0,0" />
<vehicle id="V9" type= "type1" route="Route1" depart="5.952452" 					departSpeed="10" departPos="base" color="1,0,0" />
<vehicle id="V10" type= "type1" route="Route1" depart="6.154019" 					departSpeed="10" departPos="base" color="1,0,0" />
<vehicle id="V11" type= "type1" route="Route1" depart="6.761242" 					departSpeed="10" departPos="base" color="1,0,0" />
<vehicle id="V12" type= "type1" route="Route1" depart="7.608281" 					departSpeed="10" departPos="base" color="1,0,0" />
<vehicle id="V13" type= "type1" route="Route1" depart="7.652699" 					departSpeed="10" departPos="base" color="1,0,0" />
<vehicle id="V14" type= "type1" route="Route1" depart="7.656332" 					departSpeed="10" departPos="base" color="1,0,0" />
<vehicle id="V15" type= "type1" route="Route1" depart="8.081831" 					departSpeed="10" departPos="base" color="1,0,0" />
<vehicle id="V16" type= "type1" route="Route1" depart="8.339315" 					departSpeed="10" departPos="base" color="1,0,0" />
<vehicle id="V17" type= "type1" route="Route1" depart="8.508149" 					departSpeed="10" departPos="base" color="1,0,0" />
<vehicle id="V18" type= "type1" route="Route1" depart="8.822182" 					departSpeed="10" departPos="base" color="1,0,0" />
<vehicle id="V19" type= "type1" route="Route1" depart="9.623438" 					departSpeed="10" departPos="base" color="1,0,0" />
<vehicle id="V20" type= "type1" route="Route1" depart="10.883089" 					departSpeed="10" departPos="base" color="1,0,0" />
<vehicle id="V21" type= "type1" route="Route1" depart="10.984155" 					departSpeed="10" departPos="base" color="1,0,0" />
<vehicle id="V22" type= "type1" route="Route1" depart="12.110165" 					departSpeed="10" departPos="base" color="1,0,0" />
<vehicle id="V23" type= "type1" route="Route1" depart="13.816952" 					departSpeed="10" departPos="base" color="1,0,0" />
<vehicle id="V24" type= "type1" route="Route1" depart="14.293206" 					departSpeed="10" departPos="base" color="1,0,0" />
<vehicle id="V25" type= "type1" route="Route1" depart="15.306383" 					departSpeed="10" departPos="base" color="1,0,0" />
<vehicle id="V26" type= "type1" route="Route1" depart="16.179351" 					departSpeed="10" departPos="base" color="1,0,0" />
<vehicle id="V27" type= "type1" route="Route1" depart="17.614030" 					departSpeed="10" departPos="base" color="1,0,0" />
<vehicle id="V28" type= "type1" route="Route1" depart="19.665698" 					departSpeed="10" departPos="base" color="1,0,0" />
<vehicle id="V29" type= "type1" route="Route1" depart="21.415382" 					departSpeed="10" departPos="base" color="1,0,0" />
<vehicle id="V30" type= "type1" route="Route1" depart="21.676512" 					departSpeed="10" departPos="base" color="1,0,0" />
<vehicle id="V31" type= "type1" route="Route1" depart="22.021948" 					departSpeed="10" departPos="base" color="1,0,0" />
<vehicle id="V32" type= "type1" route="Route1" depart="22.653345" 					departSpeed="10" departPos="base" color="1,0,0" />
<vehicle id="V33" type= "type1" route="Route1" depart="22.835936" 					departSpeed="10" departPos="base" color="1,0,0" />
<vehicle id="V34" type= "type1" route="Route1" depart="23.184594" 					departSpeed="10" departPos="base" color="1,0,0" />
<vehicle id="V35" type= "type1" route="Route1" depart="23.597459" 					departSpeed="10" departPos="base" color="1,0,0" />
<vehicle id="V36" type= "type1" route="Route1" depart="23.653299" 					departSpeed="10" departPos="base" color="1,0,0" />
<vehicle id="V37" type= "type1" route="Route1" depart="23.660068" 					departSpeed="10" departPos="base" color="1,0,0" />
<vehicle id="V38" type= "type1" route="Route1" depart="24.739479" 					departSpeed="10" departPos="base" color="1,0,0" />
<vehicle id="V39" type= "type1" route="Route1" depart="25.645597" 					departSpeed="10" departPos="base" color="1,0,0" />
</routes>
